McPAT (version 1.3 of Feb, 2015) is computing the target processor...
 
